[General]
debug-on-errors = true

network = Scenario
sim-time-limit = 7200s
repeat = 30
seed-set = ${runnumber}

cmdenv-express-mode = true

# smartphone number
**.param-record-as-scalar = false
*.scalar-recording = false
**.scalar-recording = false
**.vector-recording = false
*.hostNum = 1
*.thingNum = 10

# house size layout
**.constraintAreaMinX = 0m
**.constraintAreaMinY = 0m
**.constraintAreaMinZ = 0m
**.constraintAreaMaxX = 930m
**.constraintAreaMaxY = 1010m
**.constraintAreaMaxZ = 0m
**.debug = true
**.coreDebug = false
**.host*.**.channelNumber = 0


# channel physical parameters
*.channelControl.carrierFrequency = 2.4GHz
*.channelControl.pMax = 20.0mW
*.channelControl.sat = -110dBm
*.channelControl.alpha = 2
*.channelControl.numChannels = 1
*.channelControl.propagationModel= "RiceModel"


# mobility
**.host*.mobilityType = "StanMobility"
**.host*.mobility.scale = 100x
**.host*.mobility.initialX = 900m
**.host*.mobility.initialY = 700m
**.host*.mobility.initialZ = 0m

**.host*.mobility.initFromDisplayString = false
**.host*.mobility.changeInterval = 2s		#truncnormal(2s, 0.5s)
**.host*.mobility.changeAngleBy = 0deg		#normal(0deg, 30deg)
**.host*.mobility.speed = 5mps				#truncnormal(20mps, 8mps)
**.host*.mobility.updateInterval = 100ms

# UDPBasicApp / UDPSink
#**.numUdpApps = 1
#**.udpApp[0].typename = "A_UDPBasicApp"
#**.udpApp[0].destAddresses = "host[0]"
#**.udpApp[0].localPort = 9001
#**.udpApp[0].destPort = 9001
#**.udpApp[0].messageLength = 100B
#**.udpApp[0].startTime = 10s #uniform(10s, 30s)
#**.udpApp[0].sendInterval = 1s #uniform(10s, 30s)


**.host.wlan[*].mgmt.ssid = "SmartPhone"
**.host.wlan[*].radio.transmitterPower = 0.5mW

#**.tTV.wlan[*].mgmt.ssid = "smartTV"
#**.tAir.wlan[*].mgmt.ssid = "aircon"
#**.tPrint.wlan[*].mgmt.ssid = "printer"
#**.tCom.wlan[*].mgmt.ssid = "computer"

**.thing[*].mobilityType = "StanMobility"
**.thing[*].mobility.scale = 10x
**.thing[*].mobility.initialX = uniform(0m, 930m)
**.thing[*].mobility.initialY = uniform(0m, 1010m)

#**.thing[0].mobility.initialX = 46m
#**.thing[0].mobility.initialY = 960m
#**.thing[1].mobility.initialX = 186m
#**.thing[1].mobility.initialY = 960m
#**.thing[2].mobility.initialX = 60m
#**.thing[2].mobility.initialY = 424m
#**.thing[3].mobility.initialX = 186m
#**.thing[3].mobility.initialY = 58m
#**.thing[4].mobility.initialX = 113m
#**.thing[4].mobility.initialY = 328m
#**.thing[5].mobility.initialX = 799m
#**.thing[5].mobility.initialY = 214m
#**.thing[6].mobility.initialX = 489m
#**.thing[6].mobility.initialY = 844m
#**.thing[7].mobility.initialX = 597m
#**.thing[7].mobility.initialY = 456m
#**.thing[8].mobility.initialX = 489m
#**.thing[8].mobility.initialY = 650m
#**.thing[9].mobility.initialX = 259m
#**.thing[9].mobility.initialY = 660m

**.thing[*].mobility.initialZ = 0m

**.thing[*].mobility.initFromDisplayString = false
**.thing[*].mobility.changeInterval = 0s		#truncnormal(2s, 0.5s)
**.thing[*].mobility.changeAngleBy = 0deg		#normal(0deg, 30deg)
**.thing[*].mobility.speed = 0mps				#truncnormal(20mps, 8mps)

# nic settings

**.wlan[*].bitrate = 54Mbps
**.wlan[*].mgmtType = "A_Ieee80211MgmtAdhoc"

**.wlan[*].mgmt.frameCapacity = 10
**.wlan[*].mac.address = "auto"
**.wlan[*].mac.maxQueueSize = 14
**.wlan[*].mac.rtsThresholdBytes = 3000B
**.wlan[*].mac.retryLimit = 7
**.wlan[*].mac.cwMinData = 7
**.wlan[*].mac.cwMinBroadcast = 31

**.wlan[*].radio.transmitterPower = uniform(10.0mW, 20.0mW)
#**.wlan[*].radio.transmitterPower = 0.25mW
**.wlan[*].radio.thermalNoise = -110dBm
**.wlan[*].radio.sensitivity = -85dBm
**.wlan[*].radio.pathLossAlpha = 2
**.wlan[*].radio.snirThreshold = 4dB

#**.host*.wlan[*].radio.transmitterPower = 0.25mW
